VIVA218-13.pdb
 OpenBabel06212317263D

 76 80  0  0  0  0  0  0  0  0999 V2000
   -3.9260   16.4750   18.3680 C   0  0  0  0  0  0  0  0  0  0  0  0
   -5.3670   16.2710   18.5760 N   0  0  0  0  0  0  0  0  0  0  0  0
   -5.0190   14.2510   19.5010 O   0  0  0  0  0  0  0  0  0  0  0  0
   -5.7980   15.1730   19.2160 C   0  0  0  0  0  0  0  0  0  0  0  0
   -7.9590   16.0480   18.8970 N   0  0  0  0  0  0  0  0  0  0  0  0
  -11.9630   13.9030   21.4080 O   0  0  0  0  0  0  0  0  0  0  0  0
   -7.2440   15.0880   19.4540 C   0  0  0  0  0  0  0  0  0  0  0  0
   -9.2540   16.0730   19.0390 N   0  0  0  0  0  0  0  0  0  0  0  0
   -3.2710    4.7540   23.7620 O   0  0  0  0  0  0  0  0  0  0  0  0
   -9.9070   15.1460   19.7590 C   0  0  0  0  0  0  0  0  0  0  0  0
  -11.2830   15.2670   19.7380 N   0  0  0  0  0  0  0  0  0  0  0  0
   -5.5570   10.9770   20.9270 O   0  0  0  0  0  0  0  0  0  0  0  0
  -12.2050   14.6550   20.5010 C   0  0  0  0  0  0  0  0  0  0  0  0
   -7.0430   13.1260   20.8430 N   0  0  0  0  0  0  0  0  0  0  0  0
  -13.6070   14.9980   20.1560 C   0  0  0  0  0  0  0  0  0  0  0  0
   -2.4970    5.3070   21.7270 N   0  0  0  0  0  0  0  0  0  0  0  0
  -14.6380   13.8720   20.2640 C   0  0  0  0  0  0  0  0  0  0  0  0
   -5.7830    0.4850   19.9570 N   0  0  0  0  0  0  0  0  0  0  0  0
  -14.6570   15.0410   21.2690 C   0  0  0  0  0  0  0  0  0  0  0  0
   -0.9680    2.7750   19.8830 N   0  0  0  0  0  0  0  0  0  0  0  0
   -9.2460   14.1080   20.3900 C   0  0  0  0  0  0  0  0  0  0  0  0
   -3.6750    7.8900   22.7830 N   0  0  0  0  0  0  0  0  0  0  0  0
   -7.8580   14.0780   20.2680 C   0  0  0  0  0  0  0  0  0  0  0  0
   -7.3430   12.2170   21.8550 C   0  0  0  0  0  0  0  0  0  0  0  0
   -8.2980   12.3960   22.8320 C   0  0  0  0  0  0  0  0  0  0  0  0
   -8.4590   11.4530   23.8180 C   0  0  0  0  0  0  0  0  0  0  0  0
   -7.7010   10.3010   23.8290 C   0  0  0  0  0  0  0  0  0  0  0  0
   -7.9180    9.3040   24.9480 C   0  0  0  0  0  0  0  0  0  0  0  0
   -6.7180   10.1020   22.8520 C   0  0  0  0  0  0  0  0  0  0  0  0
   -5.8210    8.8960   22.8390 C   0  0  0  0  0  0  0  0  0  0  0  0
   -6.4030    7.6270   22.8840 C   0  0  0  0  0  0  0  0  0  0  0  0
   -5.5870    6.5100   22.9080 C   0  0  0  0  0  0  0  0  0  0  0  0
   -4.2370    6.6660   22.8080 C   0  0  0  0  0  0  0  0  0  0  0  0
   -3.2990    5.5050   22.7970 C   0  0  0  0  0  0  0  0  0  0  0  0
   -2.5930    6.1050   20.4960 C   0  0  0  0  0  0  0  0  0  0  0  0
   -1.5230    4.2220   21.7620 C   0  0  0  0  0  0  0  0  0  0  0  0
   -1.8390    3.1360   20.8040 C   0  0  0  0  0  0  0  0  0  0  0  0
   -3.0870    2.5910   20.8650 C   0  0  0  0  0  0  0  0  0  0  0  0
   -3.4350    1.5700   19.9660 C   0  0  0  0  0  0  0  0  0  0  0  0
   -4.7510    0.9990   19.9780 C   0  0  0  0  0  0  0  0  0  0  0  0
   -2.4650    1.1590   19.0570 C   0  0  0  0  0  0  0  0  0  0  0  0
   -1.2570    1.8040   19.0420 C   0  0  0  0  0  0  0  0  0  0  0  0
   -4.4360    8.9830   22.8230 C   0  0  0  0  0  0  0  0  0  0  0  0
   -6.5380   11.0940   21.8800 C   0  0  0  0  0  0  0  0  0  0  0  0
   -5.8960   10.1740   19.7700 C   0  0  0  0  0  0  0  0  0  0  0  0
   -3.7678   17.3950   17.8450 H   0  0  0  0  0  0  0  0  0  0  0  0
   -3.5306   15.6647   17.7919 H   0  0  0  0  0  0  0  0  0  0  0  0
   -3.4308   16.5138   19.3157 H   0  0  0  0  0  0  0  0  0  0  0  0
   -6.0131   16.9371   18.2472 H   0  0  0  0  0  0  0  0  0  0  0  0
  -11.6402   15.8923   19.0667 H   0  0  0  0  0  0  0  0  0  0  0  0
   -6.1247   13.0829   20.4906 H   0  0  0  0  0  0  0  0  0  0  0  0
  -13.3018   15.6888   19.3980 H   0  0  0  0  0  0  0  0  0  0  0  0
  -14.3345   12.8966   20.5826 H   0  0  0  0  0  0  0  0  0  0  0  0
  -15.3521   13.4319   19.5997 H   0  0  0  0  0  0  0  0  0  0  0  0
  -15.4448   15.7643   21.2346 H   0  0  0  0  0  0  0  0  0  0  0  0
  -14.6283   15.1244   22.3354 H   0  0  0  0  0  0  0  0  0  0  0  0
   -9.7567   13.3892   20.9262 H   0  0  0  0  0  0  0  0  0  0  0  0
   -8.8929   13.2392   22.8231 H   0  0  0  0  0  0  0  0  0  0  0  0
   -9.1575   11.6090   24.5615 H   0  0  0  0  0  0  0  0  0  0  0  0
   -7.2597    8.4709   24.8160 H   0  0  0  0  0  0  0  0  0  0  0  0
   -8.9322    8.9635   24.9306 H   0  0  0  0  0  0  0  0  0  0  0  0
   -7.7154    9.7732   25.8880 H   0  0  0  0  0  0  0  0  0  0  0  0
   -7.4297    7.5238   22.8992 H   0  0  0  0  0  0  0  0  0  0  0  0
   -5.9969    5.5675   23.0008 H   0  0  0  0  0  0  0  0  0  0  0  0
   -1.8599    5.7669   19.7937 H   0  0  0  0  0  0  0  0  0  0  0  0
   -2.4192    7.1357   20.7247 H   0  0  0  0  0  0  0  0  0  0  0  0
   -3.5698    5.9931   20.0737 H   0  0  0  0  0  0  0  0  0  0  0  0
   -0.5591    4.6199   21.5221 H   0  0  0  0  0  0  0  0  0  0  0  0
   -1.5448    3.8008   22.7454 H   0  0  0  0  0  0  0  0  0  0  0  0
   -3.7685    2.9251   21.5642 H   0  0  0  0  0  0  0  0  0  0  0  0
   -2.6527    0.3813   18.4051 H   0  0  0  0  0  0  0  0  0  0  0  0
   -0.5488    1.5192   18.3475 H   0  0  0  0  0  0  0  0  0  0  0  0
   -3.9869    9.9120   22.8425 H   0  0  0  0  0  0  0  0  0  0  0  0
   -5.0651   10.1506   19.0962 H   0  0  0  0  0  0  0  0  0  0  0  0
   -6.7439   10.6004   19.2759 H   0  0  0  0  0  0  0  0  0  0  0  0
   -6.1294    9.1778   20.0832 H   0  0  0  0  0  0  0  0  0  0  0  0
  1  2  1  0  0  0  0
  1 46  1  0  0  0  0
  1 47  1  0  0  0  0
  1 48  1  0  0  0  0
  2  4  1  0  0  0  0
  2 49  1  0  0  0  0
  4  7  1  0  0  0  0
  4  3  2  0  0  0  0
  5  8  1  0  0  0  0
  5  7  2  0  0  0  0
  7 23  1  0  0  0  0
  8 10  2  0  0  0  0
 10 21  1  0  0  0  0
 11 10  1  0  0  0  0
 11 13  1  0  0  0  0
 11 50  1  0  0  0  0
 12 44  1  0  0  0  0
 13  6  2  0  0  0  0
 14 24  1  0  0  0  0
 14 51  1  0  0  0  0
 15 17  1  0  0  0  0
 15 13  1  0  0  0  0
 15 19  1  0  0  0  0
 15 52  1  0  0  0  0
 16 36  1  0  0  0  0
 16 34  1  0  0  0  0
 17 19  1  0  0  0  0
 17 53  1  0  0  0  0
 17 54  1  0  0  0  0
 18 40  3  0  0  0  0
 19 55  1  0  0  0  0
 19 56  1  0  0  0  0
 20 37  1  0  0  0  0
 21 57  1  0  0  0  0
 22 33  2  0  0  0  0
 22 43  1  0  0  0  0
 23 21  2  0  0  0  0
 23 14  1  0  0  0  0
 24 44  2  0  0  0  0
 24 25  1  0  0  0  0
 25 26  2  0  0  0  0
 25 58  1  0  0  0  0
 26 27  1  0  0  0  0
 26 59  1  0  0  0  0
 27 28  1  0  0  0  0
 28 60  1  0  0  0  0
 28 61  1  0  0  0  0
 28 62  1  0  0  0  0
 29 27  2  0  0  0  0
 30 29  1  0  0  0  0
 30 31  1  0  0  0  0
 31 32  2  0  0  0  0
 31 63  1  0  0  0  0
 32 64  1  0  0  0  0
 33 32  1  0  0  0  0
 34 33  1  0  0  0  0
 34  9  2  0  0  0  0
 35 16  1  0  0  0  0
 35 65  1  0  0  0  0
 35 66  1  0  0  0  0
 35 67  1  0  0  0  0
 36 68  1  0  0  0  0
 36 69  1  0  0  0  0
 37 38  2  0  0  0  0
 37 36  1  0  0  0  0
 38 70  1  0  0  0  0
 39 40  1  0  0  0  0
 39 38  1  0  0  0  0
 41 39  2  0  0  0  0
 41 71  1  0  0  0  0
 42 41  1  0  0  0  0
 42 20  2  0  0  0  0
 42 72  1  0  0  0  0
 43 30  2  0  0  0  0
 43 73  1  0  0  0  0
 44 29  1  0  0  0  0
 45 12  1  0  0  0  0
 45 74  1  0  0  0  0
 45 75  1  0  0  0  0
 45 76  1  0  0  0  0
M  END
$$$$
